
This summary information was generated by AeroDyn on 05-Sep-2025 at 22:44:50.

======  General Options  ============================================================================
            3  WakeMod        - Type of wake/induction model: Free Vortex Wake Theory
            1  AFAeroMod      - Type of blade airfoil aerodynamics model: steady
            0  TwrPotent      - Type of tower influence on wind based on potential flow around the tower: none
            0  TwrShadow      - Type of tower influence on wind based on downstream tower shadow: none
            F  TwrAero        - Calculate tower aerodynamic loads? No
            F  CavitCheck     - Perform cavitation check? No
            F  Buoyancy       - Include buoyancy effects? No
======  Blade-Element/Momentum Theory Options  ======================================================
            2  SkewMod        - Type of skewed-wake correction model: Pitt/Peters
            T  TipLoss        - Use the Prandtl tip-loss model? Yes
            T  HubLoss        - Use the Prandtl hub-loss model? Yes
            T  TanInd         - Include tangential induction in BEMT calculations? Yes
            T  AIDrag         - Include the drag term in the axial-induction calculation? Yes
            T  TIDrag         - Include the drag term in the tangential-induction calculation? Yes
   5.0000E-10  IndToler       - Convergence tolerance for BEM induction factors (radians)
======  Outputs  ====================================================================================
            0  NBlOuts        - Number of blade nodes selected for output
            0  NTwOuts        - Number of tower nodes selected for output

               Requested Output Channels:
                Col   Parameter            Units               
                ---   ---------------      ---------------     
                  0   Time                 (s)                 
                  1   RtAeroCp             (-)                 
                  2   RtAeroCq             (-)                 
                  3   RtAeroCt             (-)                 
                  4   RtAeroFxh            (N)                 
                  5   RtAeroFyh            (N)                 
                  6   RtAeroFzh            (N)                 
                  7   RtAeroMxh            (N-m)               
                  8   RtAeroMyh            (N-m)               
                  9   RtAeroMzh            (N-m)               
                 10   RtAeroPwr            (W)                 
                 11   RtAeroFxi            (N)                 
                 12   RtAeroFyi            (N)                 
                 13   RtAeroFzi            (N)                 
                 14   RtAeroMxi            (N-m)               
                 15   RtAeroMyi            (N-m)               
                 16   RtAeroMzi            (N-m)               
                 17   RtArea               (m^2)               
                 18   RtSkew               (deg)               
                 19   RtSpeed              (rpm)               
                 20   RtTSR                (-)                 
                 21   RtVAvgxh             (m/s)               
                 22   RtVAvgyh             (m/s)               
                 23   RtVAvgzh             (m/s)               
                 24   B1Pitch              (deg)               
                 25   B2Pitch              (deg)               
                 26   B3Pitch              (deg)               
                 27   B1Azimuth            (deg)               
                 28   B2Azimuth            (deg)               
                 29   B3Azimuth            (deg)               
                 30   B1AeroFx             (N)                 
                 31   B1AeroFy             (N)                 
                 32   B1AeroFz             (N)                 
                 33   B1AeroMx             (N-m)               
                 34   B1AeroMy             (N-m)               
                 35   B1AeroMz             (N-m)               
                 36   B1AeroPwr            (W)                 
                 37   B1AeroFxi            (N)                 
                 38   B1AeroFyi            (N)                 
                 39   B1AeroFzi            (N)                 
                 40   B1AeroMxi            (N-m)               
                 41   B1AeroMyi            (N-m)               
                 42   B1AeroMzi            (N-m)               
                 43   B2AeroFx             (N)                 
                 44   B2AeroFy             (N)                 
                 45   B2AeroFz             (N)                 
                 46   B2AeroMx             (N-m)               
                 47   B2AeroMy             (N-m)               
                 48   B2AeroMz             (N-m)               
                 49   B2AeroPwr            (W)                 
                 50   B2AeroFxi            (N)                 
                 51   B2AeroFyi            (N)                 
                 52   B2AeroFzi            (N)                 
                 53   B2AeroMxi            (N-m)               
                 54   B2AeroMyi            (N-m)               
                 55   B2AeroMzi            (N-m)               
                 56   B3AeroFx             (N)                 
                 57   B3AeroFy             (N)                 
                 58   B3AeroFz             (N)                 
                 59   B3AeroMx             (N-m)               
                 60   B3AeroMy             (N-m)               
                 61   B3AeroMz             (N-m)               
                 62   B3AeroPwr            (W)                 
                 63   B3AeroFxi            (N)                 
                 64   B3AeroFyi            (N)                 
                 65   B3AeroFzi            (N)                 
                 66   B3AeroMxi            (N-m)               
                 67   B3AeroMyi            (N-m)               
                 68   B3AeroMzi            (N-m)               
                 69   B4AeroFx             (N)                 
                 70   B4AeroFy             (N)                 
                 71   B4AeroFz             (N)                 
                 72   B4AeroMx             (N-m)               
                 73   B4AeroMy             (N-m)               
                 74   B4AeroMz             (N-m)               
                 75   B4AeroPwr            (W)                 
                 76   B4AeroFxi            (N)                 
                 77   B4AeroFyi            (N)                 
                 78   B4AeroFzi            (N)                 
                 79   B4AeroMxi            (N-m)               
                 80   B4AeroMyi            (N-m)               
                 81   B4AeroMzi            (N-m)               


               Requested Output Channels at each blade station:
                Col   Parameter            Units               
                ---   ---------------      ---------------     
                  1   Alpha                (deg)               
                  2   Cl                   (-)                 
                  3   Cd                   (-)                 
                  4   Cm                   (-)                 
                  5   Fx                   (N/m)               
                  6   Fy                   (N/m)               
                  7   Vx                   (m/s)               
                  8   Vy                   (m/s)               
                  9   VUndx                (m/s)               
                 10   VUndy                (m/s)               
                 11   VUndz                (m/s)               
                 12   VDisx                (m/s)               
                 13   VDisy                (m/s)               
                 14   VDisz                (m/s)               
                 15   STVx                 (m/s)               
                 16   STVy                 (m/s)               
                 17   STVz                 (m/s)               
                 18   Vrel                 (m/s)               
                 19   Vindx                (m/s)               
                 20   Vindy                (m/s)               
                 21   Gam                  (m^2/s)             
                 22   Fn                   (N/m)               
                 23   Ft                   (N/m)               
                 24   Cx                   (-)                 
                 25   Cy                   (-)                 
                 26   Cn                   (-)                 
                 27   Ct                   (-)                 
                 28   Fl                   (N/m)               
                 29   Fd                   (N/m)               
                 30   Mm                   (N-m/m)             


Buoyancy parameters:

Hub volume (m^3):           0.000
Nacelle volume (m^3):       0.000
Total blade volume (m^3):   0.000
Tower volume (m^3):         0.000
