
These predictions were generated by HydroDyn on 22-Sep-2025 at 16:27:37.




    Time                       HydroFxi                       HydroFyi                       HydroFzi                       HydroMxi                       HydroMyi                       HydroMzi
   (sec)                            (N)                            (N)                            (N)                          (N-m)                          (N-m)                          (N-m)
    0.0000                      0.14322719E+06                     -0.10373286E-03                      0.42278220E+08                      0.58806213E-02                     -0.53246256E+07                     -0.52843220E-03
    0.0100                      0.98100371E+06                     -0.15014321E+06                      0.42333405E+08                      0.13844394E+08                      0.77554036E+08                      0.64873832E+07
    0.0200                      0.10868473E+07                     -0.16525662E+06                      0.42350538E+08                      0.15546006E+08                      0.89985468E+08                      0.57912438E+07
    0.0300                      0.12040721E+07                     -0.17764391E+06                      0.42368350E+08                      0.16696672E+08                      0.10150339E+09                      0.50082019E+07
    0.0400                      0.13152623E+07                     -0.18511293E+06                      0.42385815E+08                      0.17535608E+08                      0.11374486E+09                      0.42850430E+07
