
These predictions were generated by HydroDyn on 09-Apr-2025 at 20:42:17.




    Time                       HydroFxi                       HydroFyi                       HydroFzi                       HydroMxi                       HydroMyi                       HydroMzi
   (sec)                            (N)                            (N)                            (N)                          (N-m)                          (N-m)                          (N-m)
    0.0000                      0.14339022E+06                     -0.10336914E-03                      0.42239668E+08                      0.58578264E-02                     -0.53060494E+07                     -0.52797995E-03
    0.0100                      0.12448511E+07                     -0.19893569E+06                      0.42443377E+08                      0.18455845E+08                      0.10511369E+09                      0.62812419E+07
    0.0200                      0.14423989E+07                     -0.21722380E+06                      0.42561148E+08                      0.20069694E+08                      0.12811682E+09                      0.53355014E+07
    0.0300                      0.16545928E+07                     -0.22984640E+06                      0.42678608E+08                      0.20723356E+08                      0.14991334E+09                      0.43038232E+07
    0.0400                      0.18590192E+07                     -0.23375479E+06                      0.42796250E+08                      0.20745635E+08                      0.17260144E+09                      0.33319043E+07
