
These predictions were generated by HydroDyn on 07-May-2025 at 23:47:04.




    Time                       HydroFxi                       HydroFyi                       HydroFzi                       HydroMxi                       HydroMyi                       HydroMzi
   (sec)                            (N)                            (N)                            (N)                          (N-m)                          (N-m)                          (N-m)
    0.0000                      0.14339022E+06                     -0.10336914E-03                      0.42239668E+08                      0.58578264E-02                     -0.53060494E+07                     -0.52797995E-03
    0.0100                      0.12886670E+07                     -0.19551032E+06                      0.42457123E+08                      0.18353208E+08                      0.10923848E+09                      0.72752018E+07
    0.0200                      0.15110460E+07                     -0.19841340E+06                      0.42582467E+08                      0.18632564E+08                      0.13467444E+09                      0.70905739E+07
    0.0300                      0.17479074E+07                     -0.19481306E+06                      0.42707403E+08                      0.17863285E+08                      0.15881618E+09                      0.68122008E+07
    0.0400                      0.19762446E+07                     -0.18152601E+06                      0.42832583E+08                      0.16388746E+08                      0.18381676E+09                      0.65972449E+07
